omf/scratch/OLD/milToGridlabTests/Olin-Brown.glm
clock {
	timezone PST+8PDT;
	starttime '2000-01-01 00:00:00';
	stoptime '2000-01-01 00:00:00';
};

#set minimum_timestep=60;
#set profiler=1;
#set relax_naming_rules=1;
module generators;
module tape;
module residential {
	implicit_enduses NONE;
};

module powerflow {
	solver_method NR;
	NR_iteration_limit 50;
};

object node {
	phases ABCN;
	name BROMLEY;
	bustype SWING;
	longitude 109.866527217;
	nominal_voltage 7200.0;
	latitude 1102.95072772;
};

object overhead_line {
	phases ACB;
	from BROMLEY;
	name 8370;
	longitude 110.116783338;
	to node83698370;
	length 25.0635;
	latitude 1102.90202735;
	configuration 5564-LINECONFIG;
};

object overhead_line {
	phases ACB;
	from node83698370;
	name 8369;
	longitude 110.375852802;
	to node682668369;
	length 25.9559;
	latitude 1102.84802083;
	configuration 5564-LINECONFIG;
};

object overhead_line {
	phases ACB;
	from node682668369;
	name 68266;
	longitude 110.457111502;
	to node6826768266;
	length 19.3343;
	latitude 1103.32714186;
	configuration 5564-LINECONFIG;
};

object overhead_line {
	phases ACB;
	from node682668369;
	name 68264;
	longitude 110.597315417;
	to node6826568264;
	length 22.1567;
	latitude 1102.88107937;
	configuration 5564-LINECONFIG;
};

object overhead_line {
	phases ACB;
	from node682668369;
	name 68262;
	longitude 110.553802867;
	to node6826368262;
	length 21.6901;
	latitude 1102.50869651;
	configuration 5564-LINECONFIG;
};

object overhead_line {
	phases ACB;
	from node6826368262;
	name 68263;
	longitude 110.76368136;
	to nodeR139868263;
	length 25.5819;
	latitude 1102.10848464;
	configuration 5564-LINECONFIG;
};

object fuse {
	phases ACB;
	from nodeR139868263;
	name R1398;
	current_limit 9999.0 A;
	longitude 110.76368136;
	to node8586R1398;
	latitude 1102.10848464;
};

object overhead_line {
	phases ACB;
	from node8586R1398;
	name 8586;
	longitude 111.102888381;
	to node85808586;
	length 34.2101;
	latitude 1101.98021519;
	configuration 5564-LINECONFIG;
};

object overhead_line {
	phases ACB;
	from node85808586;
	name 8580;
	longitude 112.144052213;
	to node82588580;
	length 108.402;
	latitude 1102.81419574;
	configuration 8194-LINECONFIG;
};

object overhead_line {
	phases ACB;
	from node82588580;
	name 8258;
	to node85408258;
	longitude 112.015129987;
	length 106.998;
	latitude 1099.9139521;
	configuration 8194-LINECONFIG;
};

object overhead_line {
	phases ACB;
	from node85408258;
	name 8540;
	longitude 111.870297922;
	to node84948540;
	length 131.126;
	latitude 1096.35555118;
	configuration 8194-LINECONFIG;
};

object overhead_line {
	phases ACB;
	from node84948540;
	name 8494;
	longitude 111.725984577;
	to node81958494;
	length 131.563;
	latitude 1092.78497139;
	configuration 8194-LINECONFIG;
};

object overhead_line {
	phases ACB;
	from node81958494;
	name 8195;
	longitude 111.645321579;
	to node81948195;
	length 106.214;
	latitude 1089.89324694;
	configuration 8194-LINECONFIG;
};

object line_configuration {
	name 8194-LINECONFIG;
	spacing 5272-LINESPACING;
	conductor_B 8194_conductor_C;
	conductor_A 8194_conductor_C;
	conductor_C 8194_conductor_C;
};

object overhead_line_conductor {
	diameter 1.156;
	name 8194_conductor_C;
	geometric_mean_radius 0.048;
	resistance 0.203;
};

object overhead_line {
	phases ACB;
	from node81948195;
	name 8194;
	longitude 111.546522956;
	to node81858194;
	length 180.078;
	latitude 1084.98378478;
	configuration 8194-LINECONFIG;
};

object overhead_line {
	phases ACB;
	from node81858194;
	name 8185;
	longitude 114.084482336;
	to node83378185;
	length 255.533;
	latitude 1084.11323773;
	configuration 5564-LINECONFIG;
};

object overhead_line {
	phases ACB;
	from node83378185;
	name 8337;
	longitude 116.903601049;
	to node82308337;
	length 284.126;
	latitude 1083.08594394;
	configuration 5564-LINECONFIG;
};

object overhead_line {
	phases ACB;
	from node82308337;
	name 8230;
	longitude 116.606383413;
	to node73548230;
	length 180.361;
	latitude 1078.2285568;
	configuration 5564-LINECONFIG;
};

object overhead_line {
	phases ACB;
	from node73548230;
	name 7354;
	to node81087354;
	longitude 116.205726784;
	length 245.509;
	latitude 1071.61483534;
	configuration 5564-LINECONFIG;
};

object overhead_line {
	phases ACB;
	from node81087354;
	name 8108;
	longitude 115.700161762;
	to node80688108;
	length 320.366;
	latitude 1062.97692677;
	configuration 5564-LINECONFIG;
};

object overhead_line {
	phases ACB;
	from node80688108;
	name 8068;
	longitude 115.000505889;
	to node79418068;
	length 300.212;
	latitude 1055.0051764;
	configuration 5564-LINECONFIG;
};

object overhead_line {
	phases ACB;
	from node79418068;
	name 7941;
	longitude 114.592275591;
	to node74767941;
	length 285.923;
	latitude 1047.27813269;
	configuration 5564-LINECONFIG;
};

object overhead_line {
	phases ACB;
	from node74767941;
	name 7476;
	longitude 114.057981215;
	to node77527476;
	length 399.581;
	latitude 1036.46571134;
	configuration 5564-LINECONFIG;
};

object overhead_line {
	phases ACB;
	from node77527476;
	name 7752;
	longitude 113.775507673;
	to node77337752;
	length 184.545;
	latitude 1031.4861325;
	configuration 5564-LINECONFIG;
};

object overhead_line {
	phases ACB;
	from node77337752;
	name 7733;
	longitude 113.08542153;
	to node73097733;
	length 512.78;
	latitude 1017.61225453;
	configuration 5564-LINECONFIG;
};

object overhead_line {
	phases ACB;
	from node73097733;
	name 7309;
	longitude 112.314008258;
	to node72137309;
	length 533.965;
	latitude 1003.1854809;
	configuration 5564-LINECONFIG;
};

object overhead_line {
	phases ACB;
	from node72137309;
	name 7213;
	to node75267213;
	longitude 111.778145505;
	length 303.385;
	latitude 995.031792862;
	configuration 5564-LINECONFIG;
};

object overhead_line {
	phases ACB;
	from node75267213;
	name 7526;
	longitude 111.337384354;
	to node65167526;
	length 240.809;
	latitude 988.567572154;
	configuration 5564-LINECONFIG;
};

object overhead_line {
	phases ACB;
	from node65167526;
	name 6516;
	longitude 110.873782446;
	to nodeT121752020386516;
	length 257.081;
	latitude 981.663051748;
	configuration 5564-LINECONFIG;
};

object overhead_line {
	phases ACB;
	from nodeT121752020386516;
	name 7187;
	longitude 110.595374954;
	to node71477187;
	length 183.125;
	latitude 976.72100934;
	configuration 5564-LINECONFIG;
};

object overhead_line {
	phases ACB;
	from node71477187;
	name 7147;
	longitude 111.175032528;
	to nodeT121752000677147;
	length 168.042;
	latitude 972.413793103;
	configuration 5564-LINECONFIG;
};

object overhead_line {
	phases ACB;
	from nodeT121752000677147;
	name 6977;
	longitude 112.314943053;
	to node68466977;
	length 390.474;
	latitude 962.215724866;
	configuration 5564-LINECONFIG;
};

object overhead_line {
	phases ACB;
	from node68466977;
	name 6846;
	longitude 112.106295677;
	to node67136846;
	length 434.375;
	latitude 950.369180373;
	configuration 5564-LINECONFIG;
};

object overhead_line {
	phases ACB;
	from node67136846;
	name 6713;
	longitude 111.942690126;
	to node64756713;
	length 452.545;
	latitude 938.020910363;
	configuration 5564-LINECONFIG;
};

object overhead_line {
	phases ACB;
	from node64756713;
	name 6475;
	longitude 111.571684205;
	to node61476475;
	length 444.672;
	latitude 925.921808266;
	configuration 5564-LINECONFIG;
};

object overhead_line {
	phases ACB;
	from node61476475;
	name 6147;
	longitude 110.190897275;
	to nodeT121751901726147;
	length 319.893;
	latitude 918.041160878;
	configuration 5564-LINECONFIG;
};

object overhead_line {
	phases ACB;
	from nodeT121751901726147;
	name 6348;
	to nodeT121751882426348;
	longitude 108.034318204;
	length 494.97;
	latitude 905.873781963;
	configuration 5564-LINECONFIG;
};

object overhead_line {
	phases ACB;
	from nodeT121751882426348;
	name 6263;
	longitude 107.433405355;
	to node62626263;
	length 133.552;
	latitude 902.616407349;
	configuration 5564-LINECONFIG;
};

object overhead_line {
	phases ACB;
	from node62626263;
	name 6262;
	longitude 106.550299403;
	to node60296262;
	length 196.269;
	latitude 897.829321844;
	configuration 5564-LINECONFIG;
};

object overhead_line {
	phases ACB;
	from node60296262;
	name 6029;
	longitude 105.075348111;
	to node58226029;
	length 313.199;
	latitude 890.283155913;
	configuration 5564-LINECONFIG;
};

object overhead_line {
	phases ACB;
	from node58226029;
	name 5822;
	longitude 105.353446447;
	to node60915822;
	length 105.836;
	latitude 887.494744941;
	configuration 5564-LINECONFIG;
};

object overhead_line {
	phases ACB;
	from node60915822;
	name 6091;
	longitude 106.327259245;
	to node57876091;
	length 368.088;
	latitude 877.801795242;
	configuration 5564-LINECONFIG;
};

object overhead_line {
	phases ACB;
	from node57876091;
	name 5787;
	to node59755787;
	longitude 107.4759324;
	length 458.346;
	latitude 865.685623108;
	configuration 5564-LINECONFIG;
};

object overhead_line {
	phases ACB;
	from node59755787;
	name 5975;
	longitude 108.055589974;
	to node59745975;
	length 212.18;
	latitude 860.1121742;
	configuration 5564-LINECONFIG;
};

object overhead_line {
	phases C;
	from node59745975;
	name 5974;
	longitude 107.822127162;
	to nodeF89275974;
	length 25.0003;
	latitude 860.358030785;
	configuration 6488-LINECONFIG;
};

object fuse {
	phases C;
	from nodeF89275974;
	name F8927;
	current_limit 9999.0 A;
	longitude 107.822127162;
	to node5978F8927;
	latitude 860.358030785;
};

object overhead_line {
	phases C;
	from node5978F8927;
	name 5978;
	longitude 107.452783098;
	to node59795978;
	length 39.5511;
	latitude 860.746988712;
	configuration 6488-LINECONFIG;
};

object overhead_line {
	phases C;
	from node59795978;
	name 5979;
	longitude 103.498424168;
	to nodeT121751804955979;
	length 421.365;
	latitude 864.750452224;
	configuration 6488-LINECONFIG;
};

object overhead_line {
	phases C;
	from nodeT121751804955979;
	name 5781;
	to node53685781;
	longitude 101.438503468;
	length 226.652;
	latitude 867.344338388;
	configuration 6488-LINECONFIG;
};

object overhead_line {
	phases C;
	from node53685781;
	name 5368;
	longitude 99.501521088;
	to nodeT121751816855368;
	length 212.364;
	latitude 869.733450729;
	configuration 6488-LINECONFIG;
};

object overhead_line {
	phases ACB;
	from node59745975;
	name 5926;
	longitude 108.221071224;
	to node58815926;
	length 335.407;
	latitude 850.965319123;
	configuration 5564-LINECONFIG;
};

object overhead_line {
	phases ACB;
	from node58815926;
	name 5881;
	longitude 108.374037833;
	to nodeT121742372015881;
	length 275.923;
	latitude 843.443049245;
	configuration 5564-LINECONFIG;
};

object overhead_line {
	phases ACB;
	from nodeT121742372015881;
	name 5832;
	longitude 108.546087696;
	to node57555832;
	length 298.87;
	latitude 835.296192221;
	configuration 5564-LINECONFIG;
};

object overhead_line {
	phases ACB;
	from node57555832;
	name 5755;
	longitude 108.711256736;
	to node48895755;
	length 369.369;
	latitude 825.220998937;
	configuration 5564-LINECONFIG;
};

object overhead_line {
	phases ACB;
	from node48895755;
	name 4889;
	longitude 109.667239396;
	to nodeT121742321844889;
	length 191.945;
	latitude 820.674860474;
	configuration 5564-LINECONFIG;
};

object overhead_line {
	phases ACB;
	from nodeT121742321844889;
	name 5565;
	longitude 109.729921345;
	to nodeSW1082-Bx15565;
	length 18.1269;
	latitude 820.210391408;
	configuration 5564-LINECONFIG;
};

object switch {
	status CLOSED;
	phases ACB;
	from nodeSW1082-Bx15565;
	name SW1082-Bx1;
	longitude 109.729921345;
	to nodeSW1082-Ax1SW1082-Bx1;
	latitude 820.210391408;
};

object switch {
	status CLOSED;
	phases ACB;
	from nodeSW1082-Ax1SW1082-Bx1;
	name SW1082-Ax1;
	longitude 109.729921345;
	to node5564SW1082-Ax1;
	latitude 820.210391408;
};

object line_configuration {
	name 5564-LINECONFIG;
	spacing 5272-LINESPACING;
	conductor_A 5564_conductor_C;
	conductor_C 5564_conductor_C;
	conductor_B 5564_conductor_C;
};

object overhead_line_conductor {
	diameter 0.721;
	name 5564_conductor_C;
	geometric_mean_radius 0.0221;
	resistance 0.303;
};

object overhead_line {
	phases ACB;
	from node5564SW1082-Ax1;
	name 5564;
	longitude 110.487138571;
	to node55495564;
	length 218.97;
	latitude 814.599711032;
	configuration 5564-LINECONFIG;
};

object overhead_line {
	phases B;
	from node55495564;
	name 5549;
	longitude 110.544697479;
	to node675305549;
	length 82.4509;
	latitude 812.353946698;
	configuration 2918-LINECONFIG;
};

object overhead_line {
	phases B;
	from node675305549;
	name 67530;
	longitude 110.588722638;
	to nodeR100467530;
	length 11.6163;
	latitude 812.060384669;
	configuration 2918-LINECONFIG;
};

object fuse {
	phases B;
	from nodeR100467530;
	name R1004;
	current_limit 9999.0 A;
	longitude 110.588722638;
	to node67531R1004;
	latitude 812.060389665;
};

object overhead_line {
	phases B;
	from node67531R1004;
	name 67531;
	longitude 110.636122834;
	to node554667531;
	length 12.5072;
	latitude 811.744306452;
	configuration 2918-LINECONFIG;
};

object overhead_line {
	phases B;
	from node554667531;
	name 5546;
	longitude 110.721318058;
	to nodeSW1506-Ax15546;
	length 14.5006;
	latitude 812.064862563;
	configuration 2918-LINECONFIG;
};

object overhead_line {
	phases B;
	from node554667531;
	name 4632;
	to node46254632;
	longitude 111.194740809;
	length 147.394;
	latitude 808.019431393;
	configuration 2918-LINECONFIG;
};

object overhead_line {
	phases B;
	from node46254632;
	name 4625;
	longitude 108.556412594;
	to nodeT121742302304625;
	length 266.061;
	latitude 807.026241036;
	configuration 2808-LINECONFIG;
};

object overhead_line {
	phases B;
	from node46254632;
	name 4880;
	longitude 112.866449257;
	to nodeT121580489784880;
	length 397.075;
	latitude 798.183148677;
	configuration 2918-LINECONFIG;
};

object overhead_line {
	phases B;
	from nodeT121580489784880;
	name 5723;
	longitude 112.884277562;
	to node57045723;
	length 175.384;
	latitude 793.394698297;
	configuration 2918-LINECONFIG;
};

object overhead_line {
	phases B;
	from node57045723;
	name 5704;
	to node56825704;
	longitude 112.975937532;
	length 242.298;
	latitude 786.783689926;
	configuration 2918-LINECONFIG;
};

object overhead_line {
	phases B;
	from node56825704;
	name 5682;
	longitude 113.159251362;
	to node53205682;
	length 400.419;
	latitude 775.862063969;
	configuration 2918-LINECONFIG;
};

object overhead_line {
	phases B;
	from node53205682;
	name 5320;
	longitude 113.345687896;
	to node56295320;
	length 418.414;
	latitude 764.448981499;
	configuration 2918-LINECONFIG;
};

object overhead_line {
	phases B;
	from node56295320;
	name 5629;
	longitude 113.547456284;
	to node55955629;
	length 514.021;
	latitude 750.42491951;
	configuration 2918-LINECONFIG;
};

object overhead_line {
	phases B;
	from node55955629;
	name 5595;
	longitude 113.731394533;
	to node55255595;
	length 369.582;
	latitude 740.34630156;
	configuration 2918-LINECONFIG;
};

object overhead_line {
	phases B;
	from node55255595;
	name 5525;
	longitude 113.878109017;
	to node54915525;
	length 389.151;
	latitude 729.728444983;
	configuration 2918-LINECONFIG;
};

object overhead_line {
	phases B;
	from node54915525;
	name 5491;
	longitude 114.098960655;
	to node54545491;
	length 547.945;
	latitude 714.779462793;
	configuration 2918-LINECONFIG;
};

object overhead_line {
	phases B;
	from node54545491;
	name 5454;
	longitude 114.300100958;
	to node54555454;
	length 412.864;
	latitude 703.519949032;
	configuration 2918-LINECONFIG;
};

object overhead_line {
	phases B;
	from node54555454;
	name 5455;
	to node54585455;
	longitude 110.872220788;
	length 343.906;
	latitude 704.386848096;
	configuration 2918-LINECONFIG;
};

object overhead_line {
	phases B;
	from node54585455;
	name 5458;
	longitude 107.307322338;
	to node54605458;
	length 358.492;
	latitude 705.509732761;
	configuration 2918-LINECONFIG;
};

object overhead_line {
	phases B;
	from node54605458;
	name 5460;
	longitude 103.668598331;
	to node54625460;
	length 365.819;
	latitude 706.63261243;
	configuration 2918-LINECONFIG;
};

object overhead_line {
	phases B;
	from node54625460;
	name 5462;
	longitude 100.063348524;
	to node54655462;
	length 362.181;
	latitude 707.676992912;
	configuration 2918-LINECONFIG;
};

object overhead_line {
	phases B;
	from node54655462;
	name 5465;
	longitude 96.1715511819;
	to node54685465;
	length 390.634;
	latitude 708.71455404;
	configuration 2918-LINECONFIG;
};

object overhead_line {
	phases B;
	from node54685465;
	name 5468;
	longitude 90.1544573935;
	to node54855468;
	length 621.703;
	latitude 713.049062683;
	configuration 2918-LINECONFIG;
};

object overhead_line {
	phases B;
	from node54855468;
	name 5485;
	longitude 86.6740154967;
	to node54955485;
	length 363.053;
	latitude 715.902342461;
	configuration 2918-LINECONFIG;
};

object overhead_line {
	phases B;
	from node54955485;
	name 5495;
	longitude 84.7123233785;
	to node55005495;
	length 204.09;
	latitude 717.458669163;
	configuration 2918-LINECONFIG;
};

object overhead_line {
	phases B;
	from node55005495;
	name 5500;
	to node54665500;
	longitude 81.5484597518;
	length 327.002;
	latitude 719.748802603;
	configuration 2918-LINECONFIG;
};

object overhead_line {
	phases B;
	from node54665500;
	name 5466;
	longitude 79.3652873012;
	to node54315466;
	length 474.137;
	latitude 708.253797945;
	configuration 2918-LINECONFIG;
};

object overhead_line {
	phases B;
	from node54315466;
	name 5431;
	longitude 79.2877079036;
	to node53815431;
	length 530.182;
	latitude 693.779223882;
	configuration 2918-LINECONFIG;
};

object overhead_line {
	phases B;
	from node53815431;
	name 5381;
	longitude 79.2038757686;
	to node52545381;
	length 485.572;
	latitude 680.523100377;
	configuration 2918-LINECONFIG;
};

object overhead_line {
	phases B;
	from node52545381;
	name 5254;
	longitude 79.1403690004;
	to node51805254;
	length 579.535;
	latitude 664.700394771;
	configuration 2918-LINECONFIG;
};

object overhead_line {
	phases B;
	from node51805254;
	name 5180;
	longitude 79.0139878262;
	to node51235180;
	length 652.372;
	latitude 646.891318445;
	configuration 2918-LINECONFIG;
};

object overhead_line {
	phases B;
	from node51235180;
	name 5123;
	longitude 78.9167062576;
	to node49825123;
	length 537.963;
	latitude 632.205151203;
	configuration 2918-LINECONFIG;
};

object overhead_line {
	phases B;
	from node49825123;
	name 4982;
	longitude 78.8535135328;
	to node45944982;
	length 465.418;
	latitude 619.498522004;
	configuration 2918-LINECONFIG;
};

object overhead_line {
	phases B;
	from node45944982;
	name 4594;
	to node39774594;
	longitude 78.8256707064;
	length 289.639;
	latitude 611.590575547;
	configuration 2918-LINECONFIG;
};

object overhead_line {
	phases B;
	from node39774594;
	name 3977;
	longitude 78.8166459671;
	to node39473977;
	length 25.0001;
	latitude 610.908417206;
	configuration 2918-LINECONFIG;
};

object overhead_line {
	phases B;
	from node39473977;
	name 3947;
	longitude 78.7587284151;
	to node50733947;
	length 160.371;
	latitude 606.532497526;
	configuration 2918-LINECONFIG;
};

object overhead_line {
	phases B;
	from node50733947;
	name 5073;
	longitude 78.6902201912;
	to node50585073;
	length 577.916;
	latitude 590.754161026;
	configuration 2918-LINECONFIG;
};

object overhead_line {
	phases B;
	from node50585073;
	name 5058;
	longitude 78.5963723128;
	to node50525058;
	length 185.862;
	latitude 585.68584398;
	configuration 2918-LINECONFIG;
};

object overhead_line {
	phases B;
	from node50525058;
	name 5052;
	longitude 80.8561869228;
	to nodeT121741295785052;
	length 226.176;
	latitude 585.30700008;
	configuration 2808-LINECONFIG;
};

object overhead_line {
	phases B;
	from nodeT121741295785052;
	name 5029;
	to nodeF59935029;
	longitude 80.9447639038;
	length 19.4364;
	latitude 584.834493435;
	configuration 2808-LINECONFIG;
};

object fuse {
	phases B;
	from nodeF59935029;
	name F5993;
	current_limit 9999.0 A;
	longitude 80.9447639038;
	to node5028F5993;
	latitude 584.834493435;
};

object overhead_line {
	phases B;
	from node5028F5993;
	name 5028;
	longitude 82.3833761265;
	to node48365028;
	length 315.68;
	latitude 577.160149717;
	configuration 2808-LINECONFIG;
};

object overhead_line {
	phases B;
	from node48365028;
	name 4836;
	longitude 83.1072425686;
	to node48234836;
	length 352.252;
	latitude 567.747073346;
	configuration 2808-LINECONFIG;
};

object overhead_line {
	phases B;
	from node48234836;
	name 4823;
	longitude 84.2818828495;
	to node47044823;
	length 325.745;
	latitude 559.450050626;
	configuration 2808-LINECONFIG;
};

object overhead_line {
	phases B;
	from node47044823;
	name 4704;
	longitude 84.0025368984;
	to node45524704;
	length 204.042;
	latitude 553.93121651;
	configuration 2808-LINECONFIG;
};

object overhead_line {
	phases B;
	from node45524704;
	name 4552;
	longitude 84.3059693905;
	to nodeT121741224514552;
	length 304.761;
	latitude 545.651258831;
	configuration 2808-LINECONFIG;
};

object overhead_line {
	phases B;
	from nodeT121741224514552;
	name 4645;
	longitude 85.1799901171;
	to node48024645;
	length 285.432;
	latitude 538.2313742;
	configuration 2808-LINECONFIG;
};

object overhead_line {
	phases B;
	from node48024645;
	name 4802;
	longitude 86.5122899217;
	to nodeT121741203304802;
	length 203.354;
	latitude 534.033374223;
	configuration 2808-LINECONFIG;
};

object overhead_line {
	phases B;
	from node48365028;
	name 5016;
	longitude 82.8836317589;
	to nodeT121741274785016;
	length 114;
	latitude 574.362509644;
	configuration 2808-LINECONFIG;
};

object overhead_line {
	phases B;
	from node50525058;
	name 5025;
	to node44105025;
	longitude 77.62725426;
	length 337.077;
	latitude 576.870044028;
	configuration 2918-LINECONFIG;
};

object overhead_line {
	phases B;
	from node44105025;
	name 4410;
	longitude 76.039071237;
	to node47004410;
	length 517.9;
	latitude 563.409140036;
	configuration 2918-LINECONFIG;
};

object overhead_line {
	phases B;
	from node47004410;
	name 4700;
	longitude 74.8406547916;
	to node47854700;
	length 386.627;
	latitude 553.37148318;
	configuration 2918-LINECONFIG;
};

object overhead_line {
	phases B;
	from node47854700;
	name 4785;
	longitude 72.2586378687;
	to node39674785;
	length 843.291;
	latitude 531.449743738;
	configuration 2918-LINECONFIG;
};

object overhead_line {
	phases B;
	from node39674785;
	name 3967;
	longitude 69.741688149;
	to node40123967;
	length 806.924;
	latitude 510.514346985;
	configuration 2918-LINECONFIG;
};

object overhead_line {
	phases B;
	from node40123967;
	name 4012;
	longitude 67.63109425;
	to node45044012;
	length 696.314;
	latitude 492.394680258;
	configuration 2918-LINECONFIG;
};

object overhead_line {
	phases B;
	from node45044012;
	name 4504;
	longitude 66.6804307533;
	to node44814504;
	length 290.228;
	latitude 484.906547123;
	configuration 2918-LINECONFIG;
};

object overhead_line {
	phases B;
	from node44814504;
	name 4481;
	longitude 65.5617883337;
	to node44824481;
	length 361.934;
	latitude 475.507111125;
	configuration 2918-LINECONFIG;
};

object overhead_line {
	phases B;
	from node44824481;
	name 4482;
	to node44864482;
	longitude 70.5084127847;
	length 506.089;
	latitude 478.490085211;
	configuration 2808-LINECONFIG;
};

object overhead_line {
	phases B;
	from node44864482;
	name 4486;
	longitude 74.8709977347;
	to node44914486;
	length 447.306;
	latitude 481.240969749;
	configuration 2808-LINECONFIG;
};

object overhead_line {
	phases B;
	from node44914486;
	name 4491;
	longitude 76.4673195814;
	to node44944491;
	length 162.822;
	latitude 482.138602542;
	configuration 2808-LINECONFIG;
};

object overhead_line {
	phases B;
	from node44944491;
	name 4494;
	longitude 77.449893177;
	to node45074494;
	length 171.391;
	latitude 485.974807003;
	configuration 2808-LINECONFIG;
};

object overhead_line {
	phases B;
	from node45074494;
	name 4507;
	longitude 78.892931926;
	to node45064507;
	length 150.942;
	latitude 487.196668904;
	configuration 2808-LINECONFIG;
};

object overhead_line {
	phases B;
	from node45064507;
	name 4506;
	longitude 79.3027269366;
	to node45054506;
	length 70.6861;
	latitude 485.623272165;
	configuration 2808-LINECONFIG;
};

object overhead_line {
	phases B;
	from node45054506;
	name 4505;
	longitude 81.1511787695;
	to node45194505;
	length 225.899;
	latitude 489.176208612;
	configuration 2808-LINECONFIG;
};

object overhead_line {
	phases B;
	from node45194505;
	name 4519;
	longitude 84.1361080481;
	to node45204519;
	length 298.188;
	latitude 489.186459295;
	configuration 2808-LINECONFIG;
};

object overhead_line {
	phases B;
	from node45204519;
	name 4520;
	to node45174520;
	longitude 85.7577677154;
	length 214.276;
	latitude 493.015854397;
	configuration 2808-LINECONFIG;
};

object overhead_line {
	phases B;
	from node45174520;
	name 4517;
	longitude 86.5858051009;
	to node45164517;
	length 186.14;
	latitude 488.462894913;
	configuration 2808-LINECONFIG;
};

object overhead_line {
	phases B;
	from node45164517;
	name 4516;
	longitude 88.4793005932;
	to node45184516;
	length 190.01;
	latitude 488.954374744;
	configuration 2808-LINECONFIG;
};

object overhead_line {
	phases B;
	from node45184516;
	name 4518;
	longitude 90.4322416884;
	to nodeT121731721204518;
	length 195.969;
	latitude 489.459499944;
	configuration 2808-LINECONFIG;
};

object overhead_line {
	phases B;
	from node44824481;
	name 4451;
	longitude 64.4606589556;
	to node39464451;
	length 344.769;
	latitude 466.58551958;
	configuration 2918-LINECONFIG;
};

object overhead_line {
	phases B;
	from node39464451;
	name 3946;
	longitude 63.1743424911;
	to node42533946;
	length 428.354;
	latitude 455.428389401;
	configuration 2918-LINECONFIG;
};

object overhead_line {
	phases B;
	from node42533946;
	name 4253;
	to nodeT121731035944253;
	longitude 61.7200422157;
	length 441.465;
	latitude 444.046014012;
	configuration 2918-LINECONFIG;
};

object overhead_line {
	phases B;
	from nodeT121731035944253;
	name 4224;
	longitude 58.8255142963;
	to nodeT121731026584224;
	length 391.629;
	latitude 436.83432121;
	configuration 2918-LINECONFIG;
};

object overhead_line {
	phases B;
	from nodeT121731026584224;
	name 3609;
	longitude 58.9478709657;
	to nodeF89333609;
	length 19.0559;
	latitude 436.435157569;
	configuration 2808-LINECONFIG;
};

object fuse {
	phases B;
	from nodeF89333609;
	name F8933;
	current_limit 9999.0 A;
	longitude 58.9478709657;
	to node3610F8933;
	latitude 436.435157569;
};

object overhead_line {
	phases B;
	from node3610F8933;
	name 3610;
	to node43743610;
	longitude 60.7578055957;
	length 281.883;
	latitude 430.53050189;
	configuration 2808-LINECONFIG;
};

object overhead_line {
	phases B;
	from node43743610;
	name 4374;
	longitude 63.0429580274;
	to node43524374;
	length 356.059;
	latitude 423.069659496;
	configuration 2808-LINECONFIG;
};

object overhead_line {
	phases B;
	from node43524374;
	name 4352;
	longitude 63.5109369746;
	to node42834352;
	length 309.921;
	latitude 414.704376614;
	configuration 2808-LINECONFIG;
};

object overhead_line {
	phases B;
	from node42834352;
	name 4283;
	longitude 61.921810603;
	to node35934283;
	length 441.06;
	latitude 403.468753911;
	configuration 2808-LINECONFIG;
};

object overhead_line {
	phases B;
	from node35934283;
	name 3593;
	longitude 63.8378315898;
	to node41943593;
	length 449.988;
	latitude 392.349173483;
	configuration 2808-LINECONFIG;
};

object overhead_line {
	phases B;
	from node41943593;
	name 4194;
	longitude 65.3837881687;
	to node41684194;
	length 362.992;
	latitude 383.379783169;
	configuration 2808-LINECONFIG;
};

object overhead_line {
	phases B;
	from node41684194;
	name 4168;
	longitude 66.7889799567;
	to nodeT121730912384168;
	length 329.972;
	latitude 375.226123446;
	configuration 2808-LINECONFIG;
};

object overhead_line {
	phases B;
	from nodeT121731026584224;
	name 3606;
	longitude 56.2247324406;
	to node43733606;
	length 359.866;
	latitude 430.035615713;
	configuration 2918-LINECONFIG;
};

object overhead_line {
	phases B;
	from node43733606;
	name 4373;
	longitude 53.2642000798;
	to node41144373;
	length 400.46;
	latitude 422.663518192;
	configuration 2918-LINECONFIG;
};

object overhead_line {
	phases B;
	from node41144373;
	name 4114;
	longitude 50.6074191405;
	to node43444114;
	length 365.898;
	latitude 415.786300185;
	configuration 2918-LINECONFIG;
};

object overhead_line {
	phases B;
	from node43444114;
	name 4344;
	longitude 47.7016296956;
	to node43324344;
	length 307.351;
	latitude 413.028596293;
	configuration 2918-LINECONFIG;
};

object overhead_line {
	phases B;
	from node43324344;
	name 4332;
	longitude 45.3245087499;
	to nodeT121730373864332;
	length 250.984;
	latitude 410.810134359;
	configuration 2918-LINECONFIG;
};

object overhead_line {
	phases B;
	from nodeT121730373864332;
	name 4304;
	longitude 42.201941049;
	to node42934304;
	length 333.421;
	latitude 407.595080718;
	configuration 2918-LINECONFIG;
};

object overhead_line {
	phases B;
	from node42934304;
	name 4293;
	to node40054293;
	longitude 39.4053264478;
	length 297.931;
	latitude 404.769116663;
	configuration 2918-LINECONFIG;
};

object overhead_line {
	phases B;
	from node40054293;
	name 4005;
	longitude 35.8313610996;
	to node39934005;
	length 380.607;
	latitude 401.168386444;
	configuration 2918-LINECONFIG;
};

object overhead_line {
	phases B;
	from node39934005;
	name 3993;
	longitude 34.349214333;
	to nodeT121730359703993;
	length 158.299;
	latitude 399.639353813;
	configuration 2918-LINECONFIG;
};

object overhead_line {
	phases B;
	from nodeT121730359703993;
	name 3983;
	longitude 31.5888911458;
	to node574643983;
	length 296.054;
	latitude 396.697345817;
	configuration 2918-LINECONFIG;
};

object underground_line {
	phases B;
	from node574643983;
	name 57464;
	longitude 31.5888948115;
	to nodeF837357464;
	length 19.116;
	latitude 396.175402214;
	configuration 72487-LINECONFIG;
};

object fuse {
	phases B;
	from nodeF837357464;
	name F8373;
	current_limit 9999.0 A;
	longitude 31.5888948115;
	to node57465F8373;
	latitude 396.175402214;
};

object underground_line {
	phases B;
	from node57465F8373;
	name 57465;
	to node5746357465;
	longitude 31.5890414456;
	length 780.934;
	latitude 374.852740686;
	configuration 72487-LINECONFIG;
};

object underground_line {
	phases B;
	from node5746357465;
	name 57463;
	longitude 36.9568647893;
	to node5745757463;
	length 700;
	latitude 362.567309699;
	configuration 72487-LINECONFIG;
};

object underground_line {
	phases B;
	from node5745757463;
	name 57457;
	longitude 41.7681010449;
	to nodeT1217302852357457;
	length 500;
	latitude 358.804333264;
	configuration 72487-LINECONFIG;
};

object overhead_line {
	phases B;
	from node574643983;
	name 4266;
	longitude 27.6217090338;
	to node34524266;
	length 421.28;
	latitude 392.796277546;
	configuration 2918-LINECONFIG;
};

object overhead_line {
	phases B;
	from node34524266;
	name 3452;
	longitude 23.8794348371;
	to node42033452;
	length 402.443;
	latitude 388.727971877;
	configuration 2918-LINECONFIG;
};

object overhead_line {
	phases B;
	from node42033452;
	name 4203;
	longitude 20.2297615135;
	to node41784203;
	length 391.543;
	latitude 384.830316613;
	configuration 2918-LINECONFIG;
};

object overhead_line {
	phases B;
	from node41784203;
	name 4178;
	to node41004178;
	longitude 15.1123445922;
	length 548.177;
	latitude 379.427514779;
	configuration 2918-LINECONFIG;
};

object overhead_line {
	phases B;
	from node41004178;
	name 4100;
	longitude 14.992529586;
	to node40424100;
	length 448.409;
	latitude 367.188477685;
	configuration 2918-LINECONFIG;
};

object overhead_line {
	phases B;
	from node40424100;
	name 4042;
	longitude 14.8242335665;
	to node38694042;
	length 558.753;
	latitude 351.939152445;
	configuration 2918-LINECONFIG;
};

object overhead_line {
	phases B;
	from node38694042;
	name 3869;
	longitude 14.6803344638;
	to node38363869;
	length 474.718;
	latitude 338.983368657;
	configuration 2918-LINECONFIG;
};

object overhead_line {
	phases B;
	from node38363869;
	name 3836;
	longitude 14.5602115255;
	to node38073836;
	length 301.988;
	latitude 330.744377069;
	configuration 2918-LINECONFIG;
};

object overhead_line {
	phases B;
	from node38073836;
	name 3807;
	longitude 14.4885757107;
	to node37733807;
	length 347.949;
	latitude 321.245975495;
	configuration 2918-LINECONFIG;
};

object overhead_line {
	phases B;
	from node37733807;
	name 3773;
	longitude 14.3205961761;
	to node37293773;
	length 450.812;
	latitude 308.94549426;
	configuration 2918-LINECONFIG;
};

object overhead_line {
	phases B;
	from node37293773;
	name 3729;
	longitude 14.24864632;
	to node34903729;
	length 347.699;
	latitude 299.453918702;
	configuration 2918-LINECONFIG;
};

object overhead_line {
	phases B;
	from node34903729;
	name 3490;
	to node33213490;
	longitude 14.0794112284;
	length 452.191;
	latitude 287.115894379;
	configuration 2918-LINECONFIG;
};

object overhead_line {
	phases B;
	from node33213490;
	name 3321;
	longitude 13.911424974;
	to node35533321;
	length 467.676;
	latitude 274.354652053;
	configuration 2918-LINECONFIG;
};

object overhead_line {
	phases B;
	from node35533321;
	name 3553;
	longitude 13.7409386019;
	to node32863553;
	length 307.472;
	latitude 265.972309128;
	configuration 2918-LINECONFIG;
};

object overhead_line {
	phases B;
	from node32863553;
	name 3286;
	longitude 13.6245676725;
	to node36813286;
	length 440.778;
	latitude 253.941455534;
	configuration 2918-LINECONFIG;
};

object overhead_line {
	phases B;
	from node36813286;
	name 3681;
	longitude 13.5125792804;
	to node30703681;
	length 468.134;
	latitude 241.163153164;
	configuration 2918-LINECONFIG;
};

object overhead_line {
	phases B;
	from node30703681;
	name 3070;
	longitude 13.3364609242;
	to node31663070;
	length 426.738;
	latitude 229.521377499;
	configuration 2918-LINECONFIG;
};

object overhead_line {
	phases B;
	from node31663070;
	name 3166;
	longitude 13.3101840315;
	to node28343166;
	length 359.134;
	latitude 219.715810191;
	configuration 2918-LINECONFIG;
};

object overhead_line {
	phases B;
	from node28343166;
	name 2834;
	longitude 13.1503365996;
	to node33442834;
	length 356.982;
	latitude 209.978498049;
	configuration 2918-LINECONFIG;
};

object overhead_line {
	phases B;
	from node33442834;
	name 3344;
	to node32113344;
	longitude 12.7683813613;
	length 621.672;
	latitude 193.036325783;
	configuration 2918-LINECONFIG;
};

object overhead_line {
	phases B;
	from node32113344;
	name 3211;
	longitude 12.6125981469;
	to node28003211;
	length 327.495;
	latitude 184.104483555;
	configuration 2918-LINECONFIG;
};

object overhead_line {
	phases B;
	from node28003211;
	name 2800;
	longitude 12.4048831226;
	to node29672800;
	length 441.988;
	latitude 172.049733908;
	configuration 2918-LINECONFIG;
};

object overhead_line {
	phases B;
	from node29672800;
	name 2967;
	longitude 11.9187636617;
	to node29182967;
	length 949.617;
	latitude 146.155246362;
	configuration 2918-LINECONFIG;
};

object line_configuration {
	name 2918-LINECONFIG;
	spacing 4041-LINESPACING;
	conductor_B 71774_conductor_C;
};

object overhead_line {
	phases B;
	from node29182967;
	name 2918;
	longitude 10.40158287;
	to node28832918;
	length 438.642;
	latitude 134.916205654;
	configuration 2918-LINECONFIG;
};

object overhead_line {
	phases B;
	from node28343166;
	name 3167;
	longitude 18.9062212838;
	to node31103167;
	length 559.63;
	latitude 220.422297874;
	configuration 2808-LINECONFIG;
};

object overhead_line {
	phases B;
	from node31103167;
	name 3110;
	longitude 22.5468252665;
	to node34243110;
	length 363.89;
	latitude 220.753371319;
	configuration 2808-LINECONFIG;
};

object overhead_line {
	phases B;
	from node34243110;
	name 3424;
	to node34263424;
	longitude 27.5575790698;
	length 500.847;
	latitude 221.214115756;
	configuration 2808-LINECONFIG;
};

object overhead_line {
	phases B;
	from node34263424;
	name 3426;
	longitude 32.3762570235;
	to node34273426;
	length 481.589;
	latitude 221.606616685;
	configuration 2808-LINECONFIG;
};

object overhead_line {
	phases B;
	from node34273426;
	name 3427;
	longitude 36.712573024;
	to node34253427;
	length 433.3;
	latitude 221.336989044;
	configuration 2808-LINECONFIG;
};

object overhead_line {
	phases B;
	from node34253427;
	name 3425;
	longitude 41.3269855278;
	to node34223425;
	length 461.182;
	latitude 220.954738798;
	configuration 2808-LINECONFIG;
};

object overhead_line {
	phases B;
	from node34223425;
	name 3422;
	longitude 45.6432730963;
	to nodeT121730033043422;
	length 431.331;
	latitude 220.650981076;
	configuration 2808-LINECONFIG;
};

object overhead_line {
	phases B;
	from nodeT121730033043422;
	name 67968;
	longitude 45.7477238671;
	to nodeR133667968;
	length 10.4377;
	latitude 220.643860094;
	configuration 2808-LINECONFIG;
};

object fuse {
	phases B;
	from nodeR133667968;
	name R1336;
	current_limit 9999.0 A;
	longitude 45.7477238671;
	to node67969R1336;
	latitude 220.643860094;
};

object overhead_line {
	phases B;
	from node67969R1336;
	name 67969;
	longitude 45.8934528456;
	to node317167969;
	length 14.5625;
	latitude 220.633926029;
	configuration 2808-LINECONFIG;
};

object overhead_line {
	phases B;
	from node317167969;
	name 3171;
	longitude 45.8314374718;
	to nodeSW1537-Bx13171;
	length 24.0518;
	latitude 219.999374837;
	configuration 2808-LINECONFIG;
};

object overhead_line {
	phases B;
	from node317167969;
	name 3109;
	longitude 48.9992113514;
	to nodeT121730021973109;
	length 310.355;
	latitude 220.422297874;
	configuration 2808-LINECONFIG;
};

object overhead_line {
	phases B;
	from nodeT121730021973109;
	name 3172;
	longitude 52.5478449871;
	to node31653172;
	length 354.781;
	latitude 220.036639616;
	configuration 2808-LINECONFIG;
};

object overhead_line {
	phases B;
	from node31653172;
	name 3165;
	to node31583165;
	longitude 59.2875508819;
	length 673.489;
	latitude 219.579296529;
	configuration 2808-LINECONFIG;
};

object overhead_line {
	phases B;
	from node31583165;
	name 3158;
	longitude 64.3605589506;
	to node30983158;
	length 507.084;
	latitude 219.101468731;
	configuration 2808-LINECONFIG;
};

object overhead_line {
	phases B;
	from node30983158;
	name 3098;
	longitude 65.366105888;
	to node30973098;
	length 465.081;
	latitude 206.702616876;
	configuration 2808-LINECONFIG;
};

object overhead_line {
	phases B;
	from node30973098;
	name 3097;
	longitude 67.3729217016;
	to nodeT121730602953097;
	length 225;
	latitude 209.491667773;
	configuration 2808-LINECONFIG;
};

object overhead_line {
	phases B;
	from node30973098;
	name 3052;
	longitude 65.5070399202;
	to nodeT121730603153052;
	length 65.1858;
	latitude 204.964789133;
	configuration 2808-LINECONFIG;
};

object overhead_line {
	phases B;
	from nodeT121730603153052;
	name 3395;
	longitude 61.7782279862;
	to node33673395;
	length 422.973;
	latitude 199.493732133;
	configuration 2808-LINECONFIG;
};

object overhead_line {
	phases B;
	from node33673395;
	name 3367;
	longitude 59.225613714;
	to node33563367;
	length 288.006;
	latitude 195.838405443;
	configuration 2808-LINECONFIG;
};

object overhead_line {
	phases B;
	from node33563367;
	name 3356;
	longitude 55.4523018922;
	to nodeT121721188053356;
	length 384;
	latitude 193.837821072;
	configuration 2808-LINECONFIG;
};

object overhead_line {
	phases B;
	from node33563367;
	name 3247;
	longitude 60.1130820414;
	to nodeT121721176423247;
	length 217.97;
	latitude 190.401478524;
	configuration 2808-LINECONFIG;
};

object overhead_line {
	phases B;
	from node30983158;
	name 3153;
	longitude 72.0274674422;
	to node30343153;
	length 766.409;
	latitude 218.34378093;
	configuration 2808-LINECONFIG;
};

object overhead_line {
	phases B;
	from node30343153;
	name 3034;
	longitude 77.0332106245;
	to nodeT121731217673034;
	length 533.099;
	latitude 213.299354941;
	configuration 2808-LINECONFIG;
};

object overhead_line {
	phases B;
	from nodeT121731217673034;
	name 3105;
	longitude 82.0158161138;
	to node30513105;
	length 531.062;
	latitude 208.244689928;
	configuration 2808-LINECONFIG;
};

object overhead_line {
	phases B;
	from node30513105;
	name 3051;
	longitude 85.260072076;
	to node33973051;
	length 345.683;
	latitude 204.961387784;
	configuration 2808-LINECONFIG;
};

object overhead_line {
	phases B;
	from node33973051;
	name 3397;
	longitude 89.7337087906;
	to node33893397;
	length 482.168;
	latitude 200.019340379;
	configuration 2808-LINECONFIG;
};

object overhead_line {
	phases B;
	from node33893397;
	name 3389;
	to nodeT121721780973389;
	longitude 91.1313892292;
	length 148.015;
	latitude 198.678023195;
	configuration 2808-LINECONFIG;
};

object overhead_line {
	phases B;
	from nodeT121721780973389;
	name 3364;
	longitude 94.6700144529;
	to nodeT121722388393364;
	length 375.159;
	latitude 195.247955039;
	configuration 2808-LINECONFIG;
};

object overhead_line {
	phases B;
	from nodeT121722388393364;
	name 3339;
	longitude 97.3486921922;
	to nodeT121722377863339;
	length 286.598;
	latitude 192.44587538;
	configuration 2808-LINECONFIG;
};

object overhead_line {
	phases B;
	from nodeT121722377863339;
	name 3242;
	longitude 99.9984401756;
	to nodeT121722376323242;
	length 283.573;
	latitude 189.668691676;
	configuration 2808-LINECONFIG;
};

object overhead_line {
	phases B;
	from nodeT121730021973109;
	name 3108;
	longitude 49.55853195;
	to node30683108;
	length 334.82;
	latitude 229.436063955;
	configuration 2808-LINECONFIG;
};

object overhead_line {
	phases B;
	from node30683108;
	name 3068;
	longitude 50.2576813237;
	to node36783068;
	length 425.644;
	latitude 240.900341547;
	configuration 2808-LINECONFIG;
};

object overhead_line {
	phases B;
	from node36783068;
	name 3678;
	longitude 50.8529585207;
	to node32633678;
	length 329.768;
	latitude 249.756747613;
	configuration 2808-LINECONFIG;
};

object overhead_line {
	phases B;
	from node32633678;
	name 3263;
	longitude 49.1753975259;
	to node32873263;
	length 237;
	latitude 254.332493266;
	configuration 2808-LINECONFIG;
};

object overhead_line {
	phases B;
	from node32873263;
	name 3287;
	to node35333287;
	longitude 47.0930668056;
	length 372;
	latitude 262.753117555;
	configuration 2808-LINECONFIG;
};

object overhead_line {
	phases B;
	from node35333287;
	name 3533;
	longitude 45.5874053722;
	to node32963533;
	length 234;
	latitude 267.647496158;
	configuration 2808-LINECONFIG;
};

object overhead_line {
	phases B;
	from node32963533;
	name 3296;
	longitude 44.6752920712;
	to node33073296;
	length 148;
	latitude 270.831842747;
	configuration 2808-LINECONFIG;
};

object overhead_line {
	phases B;
	from node33073296;
	name 3307;
	longitude 44.0046997559;
	to node33183307;
	length 123;
	latitude 273.648432688;
	configuration 2808-LINECONFIG;
};

object overhead_line {
	phases B;
	from node33183307;
	name 3318;
	longitude 43.2845486643;
	to nodeT121730134963318;
	length 261;
	latitude 280.498738252;
	configuration 2808-LINECONFIG;
};

object overhead_line {
	phases B;
	from node32633678;
	name 3679;
	longitude 50.9183593174;
	to nodeT121730080583679;
	length 36.2321;
	latitude 250.729814901;
	configuration 2808-LINECONFIG;
};

object overhead_line {
	phases B;
	from nodeT121730033043422;
	name 3170;
	longitude 45.6731535301;
	to node31693170;
	length 24.4431;
	latitude 219.988579192;
	configuration 2808-LINECONFIG;
};

object overhead_line {
	phases B;
	from node31693170;
	name 3169;
	longitude 45.8314374718;
	to nodeSW1537-Ax13169;
	length 15.8171;
	latitude 219.999374837;
	configuration 2808-LINECONFIG;
};

object overhead_line {
	phases B;
	from node41004178;
	name 4167;
	longitude 11.4429629884;
	to node41664167;
	length 402.398;
	latitude 374.895050001;
	configuration 2808-LINECONFIG;
};

object overhead_line {
	phases B;
	from node41664167;
	name 4166;
	longitude 13.6589791114;
	to nodeT121922129844166;
	length 395.716;
	latitude 383.850783285;
	configuration 2808-LINECONFIG;
};

object overhead_line {
	phases B;
	from nodeT121922129844166;
	name 4198;
	longitude 15.2834535495;
	to node35894198;
	length 312.876;
	latitude 391.154627306;
	configuration 2808-LINECONFIG;
};

object overhead_line {
	phases B;
	from node35894198;
	name 3589;
	longitude 16.6845756204;
	to node42783589;
	length 223.018;
	latitude 395.895288911;
	configuration 2808-LINECONFIG;
};

object overhead_line {
	phases B;
	from node42783589;
	name 4278;
	longitude 18.2111379615;
	to nodeT121922167014278;
	length 243.047;
	latitude 401.062583192;
	configuration 2808-LINECONFIG;
};

object overhead_line {
	phases B;
	from nodeT121922167014278;
	name 4004;
	longitude 21.4851167261;
	to node43014004;
	length 389.966;
	latitude 406.861283974;
	configuration 2808-LINECONFIG;
};

object overhead_line {
	phases B;
	from node43014004;
	name 4301;
	longitude 26.0791879779;
	to nodeT121922173124301;
	length 459.007;
	latitude 407.079716493;
	configuration 2808-LINECONFIG;
};

object overhead_line {
	phases B;
	from node41664167;
	name 4155;
	longitude 5.47059881598;
	to node41064155;
	length 605.99;
	latitude 371.997406114;
	configuration 2808-LINECONFIG;
};

object overhead_line {
	phases B;
	from node41064155;
	name 4106;
	longitude 0.418864350484;
	to nodeT121921506204106;
	length 514.036;
	latitude 369.328445429;
	configuration 2808-LINECONFIG;
};

object overhead_line {
	phases B;
	from nodeT121730373864332;
	name 4333;
	longitude 43.2552046675;
	to nodeT121730384364333;
	length 228.772;
	latitude 413.485927722;
	configuration 2808-LINECONFIG;
};

object overhead_line {
	phases B;
	from node43324344;
	name 4345;
	longitude 46.2840063608;
	to node41314345;
	length 244.827;
	latitude 418.481556678;
	configuration 2808-LINECONFIG;
};

object overhead_line {
	phases B;
	from node41314345;
	name 4131;
	longitude 44.1037714866;
	to nodeT121730394124131;
	length 219;
	latitude 417.856522918;
	configuration 2808-LINECONFIG;
};

object overhead_line {
	phases B;
	from node40123967;
	name 4385;
	longitude 64.9095564842;
	to nodeT121731173584385;
	length 569.537;
	latitude 518.766993936;
	configuration 2808-LINECONFIG;
};

object overhead_line {
	phases B;
	from node47854700;
	name 4701;
	to node48264701;
	longitude 73.0926194487;
	length 297.919;
	latitude 559.962001843;
	configuration 2808-LINECONFIG;
};

object overhead_line {
	phases B;
	from node48264701;
	name 4826;
	longitude 70.7714920889;
	to nodeT121740660794826;
	length 395.584;
	latitude 568.712961303;
	configuration 2808-LINECONFIG;
};

object overhead_line {
	phases B;
	from node675305549;
	name 5548;
	longitude 110.659078457;
	to node55475548;
	length 11.9536;
	latitude 812.449805891;
	configuration 2918-LINECONFIG;
};

object overhead_line {
	phases B;
	from node55475548;
	name 5547;
	longitude 110.721318058;
	to nodeSW1506-Bx15547;
	length 15.4086;
	latitude 812.064862563;
	configuration 2918-LINECONFIG;
};

object overhead_line {
	phases ACB;
	from node55495564;
	name 5560;
	to node55595560;
	longitude 111.349269077;
	length 88.0892;
	latitude 814.09459749;
	configuration 5564-LINECONFIG;
};

object overhead_line {
	phases ACB;
	from node55595560;
	name 5559;
	longitude 112.133198821;
	to node55685559;
	length 82.7553;
	latitude 814.82497623;
	configuration 8106-LINECONFIG;
};

object overhead_line {
	phases ACB;
	from node55685559;
	name 5568;
	longitude 116.585878419;
	to node55875568;
	length 477.361;
	latitude 819.555405472;
	configuration 8106-LINECONFIG;
};

object overhead_line {
	phases ACB;
	from node55875568;
	name 5587;
	longitude 121.364522725;
	to node57545587;
	length 518.403;
	latitude 825.074239589;
	configuration 8106-LINECONFIG;
};

object overhead_line {
	phases ACB;
	from node57545587;
	name 5754;
	longitude 126.449413071;
	to node53415754;
	length 551.06;
	latitude 830.907063789;
	configuration 8106-LINECONFIG;
};

object overhead_line {
	phases ACB;
	from node53415754;
	name 5341;
	longitude 131.252450628;
	to node58485341;
	length 537.442;
	latitude 837.518060501;
	configuration 8106-LINECONFIG;
};

object overhead_line {
	phases ACB;
	from node58485341;
	name 5848;
	longitude 134.061891467;
	to node58695848;
	length 317.932;
	latitude 841.596611857;
	configuration 8106-LINECONFIG;
};

object overhead_line {
	phases ACB;
	from node58695848;
	name 5869;
	longitude 137.799464809;
	to node59005869;
	length 418.542;
	latitude 846.76049313;
	configuration 8106-LINECONFIG;
};

object overhead_line {
	phases ACB;
	from node59005869;
	name 5900;
	to node59305900;
	longitude 140.805984176;
	length 340.128;
	latitude 851.118904488;
	configuration 8106-LINECONFIG;
};

object overhead_line {
	phases ACB;
	from node59305900;
	name 5930;
	longitude 145.703181821;
	to node59675930;
	length 548.488;
	latitude 857.890305919;
	configuration 8106-LINECONFIG;
};

object overhead_line {
	phases ACB;
	from node59675930;
	name 5967;
	longitude 148.742228374;
	to node59925967;
	length 345.714;
	latitude 862.405715651;
	configuration 8106-LINECONFIG;
};

object overhead_line {
	phases ACB;
	from node59925967;
	name 5992;
	longitude 152.040604056;
	to node59465992;
	length 373.559;
	latitude 867.211231072;
	configuration 8106-LINECONFIG;
};

object overhead_line {
	phases C;
	from node59465992;
	name 5946;
	longitude 152.101646142;
	to nodeF90425946;
	length 18.7993;
	latitude 866.725689002;
	configuration 5815-LINECONFIG;
};

object fuse {
	phases C;
	from nodeF90425946;
	name F9042;
	current_limit 9999.0 A;
	longitude 152.101646142;
	to node5945F9042;
	latitude 866.725689002;
};

object overhead_line {
	phases C;
	from node5945F9042;
	name 5945;
	longitude 153.756105492;
	to node53505945;
	length 509.518;
	latitude 853.566024642;
	configuration 5815-LINECONFIG;
};

object overhead_line {
	phases C;
	from node53505945;
	name 5350;
	longitude 156.427906075;
	to node53395350;
	length 805.034;
	latitude 832.828587356;
	configuration 5815-LINECONFIG;
};

object overhead_line {
	phases C;
	from node53395350;
	name 5339;
	to node57595339;
	longitude 156.710070463;
	length 83.9959;
	latitude 830.668153221;
	configuration 5815-LINECONFIG;
};

object overhead_line {
	phases C;
	from node57595339;
	name 5759;
	longitude 157.238110879;
	to node55795759;
	length 175.252;
	latitude 826.104956379;
	configuration 5815-LINECONFIG;
};

object overhead_line {
	phases C;
	from node55795759;
	name 5579;
	longitude 158.285745568;
	to node46155579;
	length 318.085;
	latitude 817.903497887;
	configuration 5815-LINECONFIG;
};

object overhead_line {
	phases C;
	from node46155579;
	name 4615;
	longitude 160.16516904;
	to nodeT121581696624615;
	length 567.931;
	latitude 803.268530764;
	configuration 5815-LINECONFIG;
};

object overhead_line {
	phases C;
	from node59465992;
	name 5367;
	longitude 151.921820379;
	to nodeF83665367;
	length 14.5076;
	latitude 867.439122702;
	configuration 6488-LINECONFIG;
};

object fuse {
	phases C;
	from nodeF83665367;
	name F8366;
	current_limit 9999.0 A;
	longitude 151.921820379;
	to node5370F8366;
	latitude 867.439122702;
};

object overhead_line {
	phases C;
	from node5370F8366;
	name 5370;
	to nodeT121590621485370;
	longitude 148.930543051;
	length 362.609;
	latitude 873.047474943;
	configuration 6488-LINECONFIG;
};

object overhead_line {
	phases ACB;
	from node59465992;
	name 5366;
	longitude 154.893209188;
	to node53745366;
	length 286.085;
	latitude 867.900658711;
	configuration 8106-LINECONFIG;
};

object overhead_line {
	phases ACB;
	from node53745366;
	name 5374;
	longitude 156.966582987;
	to node60945374;
	length 207.983;
	latitude 868.416029598;
	configuration 8106-LINECONFIG;
};

object overhead_line {
	phases ACB;
	from node60945374;
	name 6094;
	longitude 160.453277622;
	to node61036094;
	length 350.029;
	latitude 869.361432845;
	configuration 8106-LINECONFIG;
};

object overhead_line {
	phases ACB;
	from node61036094;
	name 6103;
	longitude 165.798119682;
	to node59946103;
	length 536.32;
	latitude 870.740281459;
	configuration 8106-LINECONFIG;
};

object overhead_line {
	phases ACB;
	from node59946103;
	name 5994;
	longitude 170.164462751;
	to node60045994;
	length 438.401;
	latitude 871.941660315;
	configuration 8106-LINECONFIG;
};

object overhead_line {
	phases ACB;
	from node60045994;
	name 6004;
	to node60066004;
	longitude 172.125849991;
	length 197.007;
	latitude 872.501393645;
	configuration 8106-LINECONFIG;
};

object overhead_line {
	phases ACB;
	from node60066004;
	name 6006;
	longitude 173.962729922;
	to node679826006;
	length 184.628;
	latitude 873.057713967;
	configuration 8106-LINECONFIG;
};

object overhead_line {
	phases A;
	from node679826006;
	name 67982;
	longitude 173.970413568;
	to nodeR134967982;
	length 19.9999;
	latitude 873.603391957;
	configuration 6769-LINECONFIG;
};

object fuse {
	phases A;
	from nodeR134967982;
	name R1349;
	current_limit 9999.0 A;
	longitude 173.970411735;
	to node67983R1349;
	latitude 873.603396981;
};

object overhead_line {
	phases A;
	from node67983R1349;
	name 67983;
	longitude 173.972335701;
	to node601867983;
	length 10;
	latitude 873.739818983;
	configuration 6769-LINECONFIG;
};

object overhead_line {
	phases A;
	from node601867983;
	name 6018;
	longitude 173.780088778;
	to node60126018;
	length 19.2223;
	latitude 873.717561092;
	configuration 6769-LINECONFIG;
};

object overhead_line {
	phases A;
	from node60126018;
	name 6012;
	longitude 173.774883254;
	to nodeSW1544-Bx16012;
	length 17.4274;
	latitude 873.241934739;
	configuration 6769-LINECONFIG;
};

object overhead_line {
	phases A;
	from node601867983;
	name 6019;
	to nodeT121591839236019;
	longitude 174.025606162;
	length 138.621;
	latitude 877.521935239;
	configuration 6769-LINECONFIG;
};

object overhead_line {
	phases A;
	from nodeT121591839236019;
	name 6090;
	longitude 174.213920839;
	to nodeT121591859526090;
	length 459.26;
	latitude 890.051081355;
	configuration 6769-LINECONFIG;
};

object overhead_line {
	phases A;
	from nodeT121591859526090;
	name 6234;
	longitude 174.3037045;
	to node63276234;
	length 505.954;
	latitude 903.863525182;
	configuration 6769-LINECONFIG;
};

object overhead_line {
	phases A;
	from node63276234;
	name 6327;
	longitude 174.460735328;
	to node64146327;
	length 562.844;
	latitude 919.225481355;
	configuration 6769-LINECONFIG;
};

object overhead_line {
	phases A;
	from node64146327;
	name 6414;
	to node66676414;
	longitude 174.554896026;
	length 528.208;
	latitude 933.645428967;
	configuration 6769-LINECONFIG;
};

object overhead_line {
	phases A;
	from node66676414;
	name 6667;
	longitude 176.664556964;
	to node68626667;
	length 755.731;
	latitude 953.461365722;
	configuration 6769-LINECONFIG;
};

object overhead_line {
	phases A;
	from node68626667;
	name 6862;
	longitude 176.569771847;
	to node70576862;
	length 513.962;
	latitude 967.492235407;
	configuration 6769-LINECONFIG;
};

object overhead_line {
	phases A;
	from node70576862;
	name 7057;
	longitude 175.384545169;
	to nodeT121591998967057;
	length 126;
	latitude 968.668893271;
	configuration 4041-LINECONFIG;
};

object overhead_line {
	phases A;
	from node70576862;
	name 7056;
	longitude 176.470920679;
	to node61697056;
	length 278.675;
	latitude 975.096417479;
	configuration 4041-LINECONFIG;
};

object overhead_line {
	phases A;
	from node61697056;
	name 6169;
	longitude 175.59783719;
	to node65696169;
	length 131.94;
	latitude 977.799526566;
	configuration 4041-LINECONFIG;
};

object overhead_line {
	phases A;
	from node65696169;
	name 6569;
	to nodeT121592029316569;
	longitude 174.387536635;
	length 183.003;
	latitude 981.550410822;
	configuration 4041-LINECONFIG;
};

object overhead_line {
	phases A;
	from node61697056;
	name 6168;
	longitude 176.741821708;
	to nodeT121592027196168;
	length 202.938;
	latitude 980.587947531;
	configuration 4041-LINECONFIG;
};

object overhead_line {
	phases A;
	from node68626667;
	name 6861;
	longitude 184.625828606;
	to node69346861;
	length 814.689;
	latitude 958.283939521;
	configuration 6769-LINECONFIG;
};

object overhead_line {
	phases A;
	from node69346861;
	name 6934;
	to nodeT121591994766934;
	longitude 183.34295011;
	length 357.043;
	latitude 967.383019147;
	configuration 4041-LINECONFIG;
};

object overhead_line {
	phases A;
	from node69346861;
	name 6932;
	longitude 190.245296211;
	to nodeF83626932;
	length 572.516;
	latitude 961.35328371;
	configuration 6769-LINECONFIG;
};

object fuse {
	phases A;
	from nodeF83626932;
	name F8362;
	current_limit 9999.0 A;
	longitude 190.245296211;
	to node6933F8362;
	latitude 961.35328371;
};

object overhead_line {
	phases A;
	from node6933F8362;
	name 6933;
	longitude 190.437090401;
	to nodeT121591981616933;
	length 19.5401;
	latitude 961.458037065;
	configuration 6769-LINECONFIG;
};

object overhead_line {
	phases A;
	from nodeT121591981616933;
	name 6958;
	to nodeT121430198186958;
	longitude 195.023970455;
	length 468.141;
	latitude 964.075820949;
	configuration 6769-LINECONFIG;
};

object overhead_line {
	phases A;
	from nodeT121430198186958;
	name 7005;
	longitude 199.470078997;
	to node70447005;
	length 452.814;
	latitude 966.481996664;
	configuration 6769-LINECONFIG;
};

object overhead_line {
	phases A;
	from node70447005;
	name 7044;
	longitude 203.859573201;
	to node70547044;
	length 439.885;
	latitude 967.434214269;
	configuration 6769-LINECONFIG;
};

object overhead_line {
	phases A;
	from node70547044;
	name 7054;
	longitude 211.409177801;
	to node70667054;
	length 755.083;
	latitude 968.437645316;
	configuration 6769-LINECONFIG;
};

object overhead_line {
	phases A;
	from node70667054;
	name 7066;
	longitude 216.040479538;
	to node70777066;
	length 463.379;
	latitude 969.144137995;
	configuration 6769-LINECONFIG;
};

object overhead_line {
	phases A;
	from node70777066;
	name 7077;
	longitude 221.553309686;
	to node70977077;
	length 551.495;
	latitude 969.942775231;
	configuration 6769-LINECONFIG;
};

object overhead_line {
	phases A;
	from node70977077;
	name 7097;
	to node71157097;
	longitude 229.147643902;
	length 759.632;
	latitude 970.993981729;
	configuration 6769-LINECONFIG;
};

object overhead_line {
	phases A;
	from node71157097;
	name 7115;
	longitude 232.076577763;
	to node61617115;
	length 292.877;
	latitude 971.345528227;
	configuration 6769-LINECONFIG;
};

object overhead_line {
	phases A;
	from node61617115;
	name 6161;
	longitude 231.893578584;
	to node67926161;
	length 401.667;
	latitude 960.38976053;
	configuration 6769-LINECONFIG;
};

object overhead_line {
	phases A;
	from node67926161;
	name 6792;
	longitude 231.617982198;
	to node66846792;
	length 503.004;
	latitude 946.676305596;
	configuration 6769-LINECONFIG;
};

object overhead_line {
	phases A;
	from node66846792;
	name 6684;
	longitude 231.306725536;
	to node60706684;
	length 411.427;
	latitude 935.474806312;
	configuration 6769-LINECONFIG;
};

object overhead_line {
	phases A;
	from node60706684;
	name 6070;
	longitude 231.087128843;
	to nodeT121430710786070;
	length 428.936;
	latitude 923.778434176;
	configuration 6769-LINECONFIG;
};

object overhead_line {
	phases A;
	from nodeT121430710786070;
	name 4869;
	to nodeT121430691734869;
	longitude 230.098615331;
	length 418.565;
	latitude 912.672510777;
	configuration 4041-LINECONFIG;
};

object overhead_line {
	phases A;
	from node679826006;
	name 6010;
	longitude 173.774883254;
	to nodeSW1544-Ax16010;
	length 19.9415;
	latitude 873.241934739;
	configuration 6769-LINECONFIG;
};

object overhead_line {
	phases ACB;
	from node679826006;
	name 5369;
	longitude 176.7583969;
	to node59685369;
	length 347.928;
	latitude 867.392120502;
	configuration 8106-LINECONFIG;
};

object overhead_line {
	phases ACB;
	from node59685369;
	name 5968;
	longitude 181.133502598;
	to node59125968;
	length 548.936;
	latitude 858.323757949;
	configuration 8106-LINECONFIG;
};

object overhead_line {
	phases ACB;
	from node59125968;
	name 5912;
	longitude 185.891808707;
	to node58775912;
	length 594.475;
	latitude 848.576206783;
	configuration 8106-LINECONFIG;
};

object overhead_line {
	phases ACB;
	from node58775912;
	name 5877;
	to node58425877;
	longitude 188.839515442;
	length 362.115;
	latitude 842.821881769;
	configuration 8106-LINECONFIG;
};

object overhead_line {
	phases ACB;
	from node58425877;
	name 5842;
	longitude 191.625180116;
	to node53365842;
	length 349.381;
	latitude 837.053891398;
	configuration 8106-LINECONFIG;
};

object overhead_line {
	phases ACB;
	from node53365842;
...